# Title Card Required
# Created by GaussView 6.0.16
#

#
#

@<TRIPOS>MOLECULE
Molecule Name
27 27
SMALL
NO_CHARGES


@<TRIPOS>ATOM
1 C1     0.7037    -0.8416    -0.8909 C
2 C2     1.6538    -1.7840    -0.5109 C
3 C3     2.8363    -1.3738     0.0674 C
4 C4     3.0939    -0.0046     0.2643 C
5 C5     2.1260     0.8822    -0.1496 C
6 H6     3.5729    -2.1048     0.3813 H
7 H7    -0.2599    -1.0831    -1.3304 H
8 H8     1.4221    -2.8303    -0.6503 H
9 H9     2.2347     1.9520    -0.0357 H
10 C10     4.3678     0.4743     0.9045 C
11 H11     4.4017     1.5629     0.9637 H
12 H12     4.4607     0.0778     1.9188 H
13 H13     5.2395     0.1379     0.3373 H
14 N14     0.9709     0.4651    -0.7267 N
15 C15    -0.0634     1.4878    -1.0535 C
16 H16     0.4685     2.3129    -1.5270 H
17 H17    -0.7423     1.0307    -1.7699 H
18 C18    -0.8258     1.9634     0.2064 C
19 H19    -0.2414     1.7010     1.0903 H
20 H20    -0.8868     3.0551     0.1707 H
21 C21    -2.2379     1.4012     0.3748 C
22 H22    -2.9231     1.7717    -0.3890 H
23 H23    -2.6288     1.6667     1.3571 H
24 S24    -2.2894    -0.4223     0.2622 S
25 O25    -3.5624    -0.8374     0.8539 O
26 O26    -1.0566    -0.8548     0.9942 O
27 O27    -2.1573    -0.6802    -1.2107 O
@<TRIPOS>BOND
1 1 2 Ar
2 1 7 1
3 1 14 Ar
4 2 3 2
5 2 8 1
6 3 4 Ar
7 3 6 1
8 4 5 2
9 4 10 1
10 5 9 1
11 5 14 Ar
12 10 11 1
13 10 12 1
14 10 13 1
15 14 15 1
16 15 16 1
17 15 17 1
18 15 18 1
19 18 19 1
20 18 20 1
21 18 21 1
22 21 22 1
23 21 23 1
24 21 24 1
25 24 25 2
26 24 26 2
27 24 27 2
