# Title Card Required
# Created by GaussView 6.0.16
#

#
#

@<TRIPOS>MOLECULE
Molecule Name
9 9
SMALL
NO_CHARGES


@<TRIPOS>ATOM
1 C1     0.6374     0.9680    -0.0001 C
2 C2     1.1294    -0.3112    -0.0001 C
3 C3    -1.0027    -0.5159     0.0000 C
4 N4    -0.7348     0.8246     0.0000 N
5 H5    -1.4099     1.5716     0.0001 H
6 H6     1.1150     1.9329    -0.0001 H
7 H7     2.1611    -0.6254    -0.0001 H
8 H8    -2.0091    -0.9050     0.0001 H
9 N9     0.1003    -1.2273     0.0001 N
@<TRIPOS>BOND
1 1 2 2
2 1 4 Ar
3 1 6 1
4 2 7 1
5 2 9 Ar
6 3 4 Ar
7 3 8 1
8 3 9 2
9 4 5 1
