# Title Card Required
# Created by GaussView 6.0.16
#

#
#

@<TRIPOS>MOLECULE
Molecule Name
26 25
SMALL
NO_CHARGES


@<TRIPOS>ATOM
1 C1    -2.9242    -0.8497    -1.0000 C
2 H2    -3.4813    -0.1148    -1.5792 H
3 H3    -3.6109    -1.5065    -0.4686 H
4 H4    -2.2812    -1.4345    -1.6541 H
5 C5    -1.0970     0.7507    -0.7941 C
6 H6    -1.7423     1.3691    -1.4199 H
7 H7    -0.5178     0.0595    -1.4055 H
8 C8    -1.3239    -1.1885     0.8053 C
9 H9    -0.6342    -0.7135     1.4998 H
10 H10    -2.0759    -1.7851     1.3206 H
11 H11    -0.7119    -1.7744     0.1231 H
12 C12    -2.9147     0.6856     0.8984 C
13 H13    -3.6345     0.0362     1.3942 H
14 H14    -2.2843     1.1668     1.6407 H
15 H15    -3.4338     1.4378     0.3054 H
16 C16    -0.1480     1.6066     0.0581 C
17 H17    -0.1990     1.3280     1.1121 H
18 H18    -0.4442     2.6567    -0.0089 H
19 C19     1.3155     1.4430    -0.3578 C
20 H20     1.9477     2.1277     0.2068 H
21 H21     1.4723     1.6141    -1.4244 H
22 N22    -2.0580    -0.1418    -0.0042 N
23 S23     1.9165    -0.2475     0.0219 S
24 O24     1.5187    -0.4290     1.4473 O
25 O25     1.1159    -1.1194    -0.9022 O
26 O26     3.3564    -0.2267    -0.2479 O
@<TRIPOS>BOND
1 1 2 1
2 1 3 1
3 1 4 1
4 1 22 1
5 5 6 1
6 5 7 1
7 5 16 1
8 5 22 1
9 8 9 1
10 8 10 1
11 8 11 1
12 8 22 1
13 12 13 1
14 12 14 1
15 12 15 1
16 12 22 1
17 16 17 1
18 16 18 1
19 16 19 1
20 19 20 1
21 19 21 1
22 19 23 1
23 23 24 2
24 23 25 2
25 23 26 2
