# Title Card Required
# Created by GaussView 6.0.16
#

#
#

@<TRIPOS>MOLECULE
Molecule Name
25 24
SMALL
NO_CHARGES


@<TRIPOS>ATOM
1 C1    -2.3170     0.8082     0.9576 C
2 H2    -3.0181     1.4499     0.4259 H
3 H3    -2.8580     0.0775     1.5571 H
4 H4    -1.6664     1.4075     1.5907 H
5 C5    -2.3191    -0.7189    -0.9508 C
6 H6    -3.0003    -0.0540    -1.4798 H
7 H7    -1.6841    -1.2362    -1.6650 H
8 H8    -2.8818    -1.4423    -0.3621 H
9 C9    -0.7118     1.1359    -0.8395 C
10 H10    -0.0687     1.6932    -0.1558 H
11 H11    -0.0609     0.6536    -1.5626 H
12 H12    -1.4570     1.7587    -1.3330 H
13 C13    -0.5230    -0.8303     0.7591 C
14 H14    -1.1984    -1.5081     1.2836 H
15 H15    -0.0111    -0.1642     1.4568 H
16 C16     0.5356    -1.5851    -0.0614 C
17 H17     0.3998    -1.4202    -1.1345 H
18 H18     0.4116    -2.6594     0.1018 H
19 C19     1.9600    -1.1170     0.3023 C
20 H20     2.6794    -1.6345    -0.3340 H
21 H21     2.1680    -1.3461     1.3511 H
22 N22    -1.4590     0.0914    -0.0382 N
23 C23     1.9993     0.4136     0.0506 C
24 O24     2.2736     0.7733    -1.1080 O
25 O25     1.5657     1.1199     1.0106 O
@<TRIPOS>BOND
1 1 2 1
2 1 3 1
3 1 4 1
4 1 22 1
5 5 6 1
6 5 7 1
7 5 8 1
8 5 22 1
9 9 10 1
10 9 11 1
11 9 12 1
12 9 22 1
13 13 14 1
14 13 15 1
15 13 16 1
16 13 22 1
17 16 17 1
18 16 18 1
19 16 19 1
20 19 20 1
21 19 21 1
22 19 23 1
23 23 24 2
24 23 25 2
