# Title Card Required
# Created by GaussView 6.0.16
#

#
#

@<TRIPOS>MOLECULE
Molecule Name
8 7
SMALL
NO_CHARGES


@<TRIPOS>ATOM
1 P1    -0.0789     0.0582     0.1082 P
2 O2    -1.0277     0.5231     1.1257 O
3 O3     0.9827     1.1651    -0.3435 O
4 H4     1.6627     0.8319    -0.9405 H
5 O5     0.9056    -1.1631     0.4579 O
6 H6     0.4465    -1.9466     0.7806 H
7 O7    -0.7718    -0.4851    -1.2501 O
8 H8    -1.6359    -0.0777    -1.3831 H
@<TRIPOS>BOND
1 1 2 2
2 1 3 Ar
3 1 5 Ar
4 1 7 1
5 3 4 1
6 5 6 1
7 7 8 1
