# Title Card Required
# Created by GaussView 6.0.16
#

#
#

@<TRIPOS>MOLECULE
Molecule Name
25 25
SMALL
NO_CHARGES


@<TRIPOS>ATOM
1 C1     2.9143     0.2411    -0.6448 C
2 C2     2.2263     1.3929    -0.4381 C
3 C3     1.2622    -0.1961     0.7613 C
4 N4     2.3064    -0.7354     0.1297 N
5 H5     3.7767     0.0326    -1.2524 H
6 H6     2.3747     2.3826    -0.8317 H
7 H7     0.5121    -0.7017     1.3612 H
8 C8     2.5075    -2.1787     0.0129 C
9 H9     2.3357    -2.6443     0.9816 H
10 H10     1.7912    -2.5682    -0.7118 H
11 H11     3.5300    -2.3725    -0.3060 H
12 N12     1.2055     1.1021     0.4549 N
13 C13     0.0522     1.9771     0.7366 C
14 H14     0.4567     2.9676     0.9476 H
15 H15    -0.4309     1.5890     1.6314 H
16 C16    -0.9319     2.0264    -0.4543 C
17 H17    -1.3019     3.0530    -0.5355 H
18 H18    -0.3777     1.8144    -1.3710 H
19 C19    -2.1446     1.0955    -0.3833 C
20 H20    -2.6838     1.1216    -1.3305 H
21 H21    -2.8312     1.3820     0.4149 H
22 S22    -1.7473    -0.6595    -0.0682 S
23 O23    -2.9528    -1.4152    -0.4142 O
24 O24    -0.5459    -0.9366    -0.9192 O
25 O25    -1.3880    -0.6758     1.3907 O
@<TRIPOS>BOND
1 1 2 2
2 1 4 1
3 1 5 1
4 2 6 1
5 2 12 1
6 3 4 Ar
7 3 7 1
8 3 12 Ar
9 4 8 1
10 8 9 1
11 8 10 1
12 8 11 1
13 12 13 1
14 13 14 1
15 13 15 1
16 13 16 1
17 16 17 1
18 16 18 1
19 16 19 1
20 19 20 1
21 19 21 1
22 19 22 1
23 22 23 2
24 22 24 2
25 22 25 2
