# Title Card Required
# Created by GaussView 6.0.16
#

#
#

@<TRIPOS>MOLECULE
Molecule Name
11 11
SMALL
NO_CHARGES


@<TRIPOS>ATOM
1 C1    -1.1410    -0.7204    -0.0002 C
2 C2    -1.1959     0.6715    -0.0001 C
3 C3     0.0002     1.3822     0.0001 C
4 C4     1.1960     0.6713     0.0002 C
5 C5     1.1408    -0.7206     0.0001 C
6 N6    -0.0002    -1.4167    -0.0001 N
7 H7     0.0003     2.4661     0.0002 H
8 H8    -2.0561    -1.3058    -0.0004 H
9 H9    -2.1523     1.1800    -0.0002 H
10 H10     2.1526     1.1794     0.0004 H
11 H11     2.0557    -1.3063     0.0002 H
@<TRIPOS>BOND
1 1 2 Ar
2 1 6 Ar
3 1 8 1
4 2 3 Ar
5 2 9 1
6 3 4 Ar
7 3 7 1
8 4 5 Ar
9 4 10 1
10 5 6 Ar
11 5 11 1
