# Title Card Required
# Created by GaussView 6.0.16
#

#
#

@<TRIPOS>MOLECULE
Molecule Name
26 26
SMALL
NO_CHARGES


@<TRIPOS>ATOM
1 C1     0.8804     0.4508     0.1533 C
2 C2     2.1058     1.0644    -0.0841 C
3 C3     3.2379     0.2547    -0.1925 C
4 C4     3.1274    -1.1268    -0.0576 C
5 C5     1.8878    -1.6827     0.1850 C
6 H6     4.2069     0.7021    -0.3841 H
7 H7    -0.1034     0.9539     0.2524 H
8 H8     3.9916    -1.7719    -0.1392 H
9 H9     1.7260    -2.7448     0.3003 H
10 C10     2.1732     2.5613    -0.2145 C
11 H11     2.6005     2.8479    -1.1790 H
12 H12     1.1802     3.0022    -0.1315 H
13 H13     2.8060     2.9890     0.5679 H
14 N14     0.8012    -0.8930     0.2870 N
15 C15    -0.5524    -1.4776     0.5245 C
16 H16    -0.3934    -2.5026     0.8597 H
17 H17    -0.9958    -0.8750     1.3157 H
18 C18    -1.4478    -1.3901    -0.7269 C
19 H19    -0.9765    -0.7204    -1.4514 H
20 H20    -1.5054    -2.3751    -1.2021 H
21 C21    -2.8434    -0.8496    -0.3962 C
22 H22    -3.4910    -0.9262    -1.2716 H
23 H23    -3.3116    -1.4633     0.3836 H
24 C24    -2.8642     0.6394     0.0870 C
25 O25    -3.9278     1.2372    -0.0387 O
26 O26    -1.7684     1.0718     0.5889 O
@<TRIPOS>BOND
1 1 2 Ar
2 1 7 1
3 1 14 Ar
4 2 3 Ar
5 2 10 1
6 3 4 Ar
7 3 6 1
8 4 5 2
9 4 8 1
10 5 9 1
11 5 14 Ar
12 10 11 1
13 10 12 1
14 10 13 1
15 14 15 1
16 15 16 1
17 15 17 1
18 15 18 1
19 18 19 1
20 18 20 1
21 18 21 1
22 21 22 1
23 21 23 1
24 21 24 1
25 24 25 2
26 24 26 2
