# Title Card Required
# Created by GaussView 6.0.16
#

#
#

@<TRIPOS>MOLECULE
Molecule Name
15 16
SMALL
NO_CHARGES


@<TRIPOS>ATOM
1 C1    -0.2570     0.6904     0.0001 C
2 C2    -0.2662    -0.7246    -0.0000 C
3 C3     0.9430    -1.4259    -0.0001 C
4 C4     2.1222    -0.6948    -0.0001 C
5 C5     2.1124     0.7129     0.0000 C
6 C6     0.9238     1.4316     0.0001 C
7 H7     0.9410    -2.5086    -0.0000 H
8 H8     3.0736    -1.2133    -0.0001 H
9 H9     3.0548     1.2479    -0.0000 H
10 H10     0.9213     2.5152     0.0001 H
11 H11    -1.9696     1.9792    -0.0002 H
12 C12    -2.3191    -0.1274    -0.0001 C
13 H13    -3.3994    -0.1199    -0.0002 H
14 N14    -1.5948     1.0452    -0.0000 N
15 N15    -1.5732    -1.1985     0.0002 N
@<TRIPOS>BOND
1 1 2 Ar
2 1 6 Ar
3 1 14 1
4 2 3 Ar
5 2 15 1
6 3 4 Ar
7 3 7 1
8 4 5 Ar
9 4 8 1
10 5 6 Ar
11 5 9 1
12 6 10 1
13 11 14 1
14 12 13 1
15 12 14 Ar
16 12 15 2
