# Title Card Required
# Created by GaussView 6.0.16
#

#
#

@<TRIPOS>MOLECULE
Molecule Name
24 24
SMALL
NO_CHARGES


@<TRIPOS>ATOM
1 C1     2.2795    -0.9982     0.4899 C
2 C2     1.2142    -1.8066     0.2565 C
3 C3     0.8235     0.1323    -0.7383 C
4 N4     2.0226     0.2023    -0.1542 N
5 H5     3.1898    -1.1697     1.0362 H
6 H6     1.0170    -2.8185     0.5625 H
7 H7     0.2705     0.9448    -1.2156 H
8 C8     2.6988     1.4796     0.0723 C
9 H9     2.9172     1.9579    -0.8818 H
10 H10     2.0236     2.1043     0.6605 H
11 H11     3.6282     1.2973     0.6080 H
12 N12     0.3181    -1.0870    -0.5213 N
13 C13    -1.0898    -1.4712    -0.7562 C
14 H14    -1.0834    -2.5316    -1.0126 H
15 H15    -1.4377    -0.8975    -1.6146 H
16 C16    -1.9755    -1.1972     0.4810 C
17 H17    -2.7827    -1.9360     0.4770 H
18 H18    -1.3757    -1.3799     1.3766 H
19 C19    -2.5653     0.2269     0.5451 C
20 H20    -2.9423     0.4060     1.5543 H
21 H21    -3.3866     0.3237    -0.1679 H
22 C22    -1.4546     1.2344     0.1809 C
23 O23    -1.4540     1.6345    -1.0139 O
24 O24    -0.5470     1.4020     1.0338 O
@<TRIPOS>BOND
1 1 2 2
2 1 4 1
3 1 5 1
4 2 6 1
5 2 12 1
6 3 4 Ar
7 3 7 1
8 3 12 Ar
9 4 8 1
10 8 9 1
11 8 10 1
12 8 11 1
13 12 13 1
14 13 14 1
15 13 15 1
16 13 16 1
17 16 17 1
18 16 18 1
19 16 19 1
20 19 20 1
21 19 21 1
22 19 22 1
23 22 23 2
24 22 24 2
